OPT_V8/Brussels_test_1203-1157/powerflow_results_t4.txt
Pandapower Network Debug Info
==================================================

BUS:
       vm_pu  va_degree      p_mw    q_mvar
0   0.993680   0.070839  0.000994  0.000804
1   0.989718   0.116020  0.001490  0.001609
2   0.986169   0.161898  0.001987  0.002413
3   0.990314   0.120641  0.002484  0.003218
4   0.990517   0.143691  0.002981  0.004022
5   0.992712   0.089299  0.003477  0.004827
6   0.991114   0.082952  0.001192  0.000804
7   0.997736   0.008492  0.001788  0.001609
8   0.998033   0.023935  0.002186  0.002413
9   0.999896   0.000064  0.009935  0.008044
10  0.999883   0.000030  0.010929  0.007240
11  0.999874   0.000017  0.011923  0.008849
12  0.999792   0.000104  0.009935  0.004827
13  0.999767   0.000075  0.011923  0.008044
14  0.999775   0.000110  0.012916  0.009653
15  0.999936   0.000127  0.000000  0.000000
16  0.999935   0.000132  0.000000  0.000000
17  0.999797   0.000162  0.000000  0.000000
18  0.999796   0.000170  0.000000  0.000000
19  1.000000   0.000000 -0.039858 -0.037252
20  1.000000   0.000005  0.000000  0.000000
21  1.000000   0.000000 -0.046520 -0.041278
22  1.000000   0.000006  0.000000  0.000000
--------------------------------------------------

LINE:
    p_from_mw  q_from_mvar   p_to_mw  q_to_mvar         pl_mw       ql_mvar  i_from_ka   i_to_ka      i_ka  vm_from_pu  va_from_degree  vm_to_pu  va_to_degree  loading_percent
0    0.039848     0.033252 -0.039845  -0.033250  2.634641e-06  2.054273e-06   0.001998  0.001998  0.001998    1.000000        0.000005  0.999936      0.000127         0.868524
1    0.046510     0.037278 -0.046500  -0.037271  9.556584e-06  7.451426e-06   0.002294  0.002294  0.002294    1.000000        0.000006  0.999797      0.000162         0.997485
2    0.032789     0.024135 -0.032787  -0.024134  1.281935e-06  9.995458e-07   0.001567  0.001567  0.001567    0.999936        0.000127  0.999896      0.000064         0.681372
3    0.009935     0.004827 -0.009935  -0.004827  4.221123e-08  3.291279e-08   0.000425  0.000425  0.000425    0.999797        0.000162  0.999792      0.000104         0.184888
4    0.024839     0.017698 -0.024839  -0.017698  5.088410e-07  3.967517e-07   0.001174  0.001174  0.001174    0.999797        0.000162  0.999775      0.000110         0.510505
5    0.007046     0.008116 -0.006992  -0.008074  5.403649e-05  4.213314e-05   0.015514  0.015514  0.015514    0.999935        0.000132  0.993680      0.070839         6.745309
6    0.004714     0.005665 -0.004671  -0.005633  4.215576e-05  3.286954e-05   0.010640  0.010640  0.010640    0.999796        0.000170  0.992712      0.089299         4.625943
7    0.001792     0.001612 -0.001788  -0.001609  3.927372e-06  3.062236e-06   0.003480  0.003480  0.003480    0.999796        0.000170  0.997736      0.008492         1.513057
8    0.005209     0.006469 -0.005198  -0.006460  1.186608e-05  9.252177e-06   0.011991  0.011991  0.011991    0.999796        0.000170  0.998033      0.023935         5.213386
9   -0.022852    -0.016089  0.022852   0.016089  2.701676e-07  2.106542e-07   0.001076  0.001076  0.001076    0.999883        0.000030  0.999896      0.000064         0.467746
10  -0.011923    -0.008849  0.011923   0.008849  1.078414e-07  8.408574e-08   0.000572  0.000572  0.000572    0.999874        0.000017  0.999883      0.000030         0.248502
11   0.011923     0.008044 -0.011923  -0.008044  1.012153e-07  7.891924e-08   0.000554  0.000554  0.000554    0.999775        0.000110  0.999767      0.000075         0.240746
12  -0.003486    -0.004029  0.003504   0.004043  1.714756e-05  1.337023e-05   0.007771  0.007771  0.007771    0.989718        0.116020  0.993680      0.070839         3.378543
13  -0.002484    -0.003218  0.002495   0.003227  1.124941e-05  8.771351e-06   0.005925  0.005925  0.005925    0.990314        0.120641  0.993680      0.070839         2.575911
14  -0.001987    -0.002413  0.001996   0.002420  9.089996e-06  7.087620e-06   0.004575  0.004575  0.004575    0.986169        0.161898  0.989718      0.116020         1.989329
15   0.003012     0.004046 -0.002981  -0.004022  3.108136e-05  2.423465e-05   0.007295  0.007295  0.007295    0.998033        0.023935  0.990517      0.143691         3.171759
16  -0.001192    -0.000804  0.001194   0.000806  1.833403e-06  1.429534e-06   0.002095  0.002095  0.002095    0.991114        0.082952  0.992712      0.089299         0.910680
--------------------------------------------------

TRAFO:
    p_hv_mw  q_hv_mvar   p_lv_mw  q_lv_mvar    pl_mw  ql_mvar   i_hv_ka   i_lv_ka  vm_hv_pu  va_hv_degree  vm_lv_pu  va_lv_degree  loading_percent
0  0.007056   0.009116 -0.007046  -0.008116  0.00001    0.001  0.000444  0.015514  0.999936      0.000127  0.999935      0.000132         0.115284
1  0.011725   0.014746 -0.011715  -0.013746  0.00001    0.001  0.000725  0.026075  0.999797      0.000162  0.999796      0.000170         0.188433
2  0.039858   0.037252 -0.039848  -0.033252  0.00001    0.004  0.000450  0.001998  1.000000      0.000000  1.000000      0.000005         0.136390
3  0.046520   0.041278 -0.046510  -0.037278  0.00001    0.004  0.000513  0.002294  1.000000      0.000000  1.000000      0.000006         0.155482
--------------------------------------------------
